/*--------------------------------*- C++ -*----------------------------------*\
  =========                 |
  \\      /  F ield         | OpenFOAM: The Open Source CFD Toolbox
   \\    /   O peration     | Website:  https://openfoam.org
    \\  /    A nd           | Version:  7
     \\/     M anipulation  |
\*---------------------------------------------------------------------------*/
FoamFile
{
    version     2.0;
    format      ascii;
    class       volScalarField;
    location    "0";
    object      omega;
}
// * * * * * * * * * * * * * * * * * * * * * * * * * * * * * * * * * * * * * //

dimensions      [0 0 -1 0 0 0 0];

internalField   uniform 638;

boundaryField
{
    inlet
    {
        type            inletOutlet;
        inletValue      uniform 638;
        value           uniform 638;
    }
    outlet
    {
        type            inletOutlet;
        inletValue      uniform 638;
        value           uniform 638;
    }
    rocket
    {
        type            omegaWallFunction;
        value           uniform 638;
    }
    walls
    {
        type            zeroGradient;
    }
    procBoundary2to0
    {
        type            processor;
        value           uniform 638;
    }
    procBoundary2to1
    {
        type            processor;
        value           uniform 638;
    }
    procBoundary2to3
    {
        type            processor;
        value           uniform 638;
    }
}


// ************************************************************************* //
